STK255897
  DSViewer          3D                             0

 26 27  0  0  0  0  0  0  0  0999 V2000
   32.3297  -38.3747   -0.0772 C   0  0  0  0  0  0  0  0  0  1
   33.6394  -39.0984   -0.1239 C   0  0  0  0  0  0  0  0  0  2
   34.7667  -38.4256    0.0914 C   0  0  0  0  0  0  0  0  0  3
   36.0522  -39.1162    0.0498 C   0  0  0  0  0  0  0  0  0  4
   37.2292  -38.3949    0.2781 N   0  0  0  0  0  0  0  0  0  5
   38.4049  -39.0111    0.2433 C   0  0  0  0  0  0  0  0  0  6
   39.4469  -38.3781    0.4444 O   0  0  0  0  0  0  0  0  0  7
   38.4545  -40.4377   -0.0337 C   0  0  0  0  0  0  0  0  0  8
   39.5392  -41.0286   -0.0702 O   0  0  0  0  0  0  0  0  0  9
   37.3234  -41.0996   -0.2470 N   0  0  0  0  0  0  0  0  0 10
   36.0978  -40.4259   -0.2046 C   0  0  0  0  0  0  0  0  0 11
   34.8615  -41.1668   -0.4412 C   0  0  0  0  0  0  0  0  0 12
   33.6882  -40.5401   -0.4043 C   0  0  0  0  0  0  0  0  0 13
   32.2007  -41.4614   -0.6937 S   0  0  0  0  0  0  0  0  0 14
   32.5446  -42.9037   -1.0123 O   0  0  0  0  0  0  0  0  0 15
   31.4322  -40.8441   -1.8470 O   0  0  0  0  0  0  0  0  0 16
   31.2004  -41.3961    0.7273 N   0  0  0  0  0  0  0  0  0 17
   31.6941  -38.8437    0.6869 H   0  0  0  0  0  0  0  0  0 18
   31.8142  -38.5139   -1.0379 H   0  0  0  0  0  0  0  0  0 19
   32.4798  -37.3073    0.1381 H   0  0  0  0  0  0  0  0  0 20
   34.7316  -37.3855    0.2937 H   0  0  0  0  0  0  0  0  0 21
   37.1843  -37.4203    0.4666 H   0  0  0  0  0  0  0  0  0 22
   37.3465  -42.0747   -0.4372 H   0  0  0  0  0  0  0  0  0 23
   34.8997  -42.2068   -0.6427 H   0  0  0  0  0  0  0  0  0 24
   31.7096  -41.8047    1.5231 H   0  0  0  0  0  0  0  0  0 25
   30.3346  -41.9275    0.5626 H   0  0  0  0  0  0  0  0  0 26
  1  2  1  0  0  0
  2  3  2  0  0  0
  3  4  1  0  0  0
  4  5  1  0  0  0
  5  6  1  0  0  0
  6  7  2  0  0  0
  6  8  1  0  0  0
  8  9  2  0  0  0
  8 10  1  0  0  0
 10 11  1  0  0  0
  4 11  2  0  0  0
 11 12  1  0  0  0
 12 13  2  0  0  0
  2 13  1  0  0  0
 13 14  1  0  0  0
 14 15  2  0  0  0
 14 16  2  0  0  0
 14 17  1  0  0  0
  1 18  1  0  0  0
  1 19  1  0  0  0
  1 20  1  0  0  0
  3 21  1  0  0  0
  5 22  1  0  0  0
 10 23  1  0  0  0
 12 24  1  0  0  0
 17 25  1  0  0  0
 17 26  1  0  0  0
M  END
> <Clean Energy>
13.9915

$$$$
