STK243239
  DSViewer          3D                             0

 25 26  0  0  0  0  0  0  0  0999 V2000
   35.1049  -70.2434   -0.0010 O   0  0  0  0  0  0  0  0  0  1
   34.9559  -71.4689   -0.0006 C   0  0  0  0  0  0  0  0  0  2
   33.7474  -72.0606    0.0001 N   0  0  0  0  0  0  0  0  0  3
   32.4811  -71.3736    0.0003 C   0  0  0  0  0  0  0  0  0  4
   32.3521  -70.0390   -0.0001 C   0  0  0  0  0  0  0  0  0  5
   31.0249  -69.4447    0.0002 C   0  0  0  0  0  0  0  0  0  6
   29.9601  -70.2348    0.0009 C   0  0  0  0  0  0  0  0  0  7
   30.1459  -71.6784    0.0013 C   0  0  0  0  0  0  0  0  0  8
   31.3180  -72.1778    0.0010 N   0  0  0  0  0  0  0  0  0  9
   28.2115  -69.4908    0.0013 Br  0  0  0  0  0  0  0  0  0 10
   36.1733  -72.3380   -0.0008 C   0  0  0  0  0  0  0  0  0 11
   37.6782  -71.3362   -0.0006 S   0  0  0  0  0  0  0  0  0 12
   39.1028  -72.3911   -0.0009 C   0  0  0  0  0  0  0  0  0 13
   39.1251  -73.7058   -0.0012 C   0  0  0  0  0  0  0  0  0 14
   40.4733  -74.1131   -0.0013 N   0  0  0  0  0  0  0  0  0 15
   41.1851  -73.1100   -0.0011 N   0  0  0  0  0  0  0  0  0 16
   40.3994  -72.0054   -0.0008 N   0  0  0  0  0  0  0  0  0 17
   33.7270  -73.0545    0.0004 H   0  0  0  0  0  0  0  0  0 18
   33.1938  -69.4105   -0.0006 H   0  0  0  0  0  0  0  0  0 19
   30.9097  -68.3903   -0.0001 H   0  0  0  0  0  0  0  0  0 20
   29.3002  -72.3184    0.0019 H   0  0  0  0  0  0  0  0  0 21
   36.1386  -72.9953    0.8798 H   0  0  0  0  0  0  0  0  0 22
   36.1386  -72.9948   -0.8817 H   0  0  0  0  0  0  0  0  0 23
   38.2809  -74.3479   -0.0013 H   0  0  0  0  0  0  0  0  0 24
   40.7230  -71.0652   -0.0005 H   0  0  0  0  0  0  0  0  0 25
  1  2  2  0  0  0
  2  3  1  0  0  0
  3  4  1  0  0  0
  4  5  2  0  0  0
  5  6  1  0  0  0
  6  7  2  0  0  0
  7  8  1  0  0  0
  8  9  2  0  0  0
  4  9  1  0  0  0
  7 10  1  0  0  0
  2 11  1  0  0  0
 11 12  1  0  0  0
 12 13  1  0  0  0
 13 14  2  0  0  0
 14 15  1  0  0  0
 15 16  2  0  0  0
 16 17  1  0  0  0
 13 17  1  0  0  0
  3 18  1  0  0  0
  5 19  1  0  0  0
  6 20  1  0  0  0
  8 21  1  0  0  0
 11 22  1  0  0  0
 11 23  1  0  0  0
 14 24  1  0  0  0
 17 25  1  0  0  0
M  END
> <Clean Energy>
34.1907

$$$$
