STK498014
  DSViewer          3D                             0

 28 28  0  0  0  0  0  0  0  0999 V2000
   21.1920  -49.4868    0.1309 N   0  0  0  0  0  0  0  0  0  1
   20.0446  -50.2221    0.1672 N   0  0  0  0  0  0  0  0  0  2
   18.8203  -49.6179   -0.1084 C   0  0  0  0  0  0  0  0  0  3
   18.7704  -48.4146   -0.3864 O   0  0  0  0  0  0  0  0  0  4
   17.5640  -50.4286   -0.0649 C   0  0  0  0  0  0  0  0  0  5
   16.3347  -49.5129   -0.0796 C   0  0  0  0  0  0  0  0  0  6
   15.1447  -50.3005   -0.0515 N   0  0  0  0  0  0  0  0  0  7
   13.9574  -49.6909   -0.0426 C   0  0  0  0  0  0  0  0  0  8
   13.9190  -48.4557   -0.0590 O   0  0  0  0  0  0  0  0  0  9
   12.6874  -50.4449   -0.0134 C   0  0  0  0  0  0  0  0  0 10
   12.6669  -51.7791    0.0050 C   0  0  0  0  0  0  0  0  0 11
   11.3901  -52.4937    0.0338 C   0  0  0  0  0  0  0  0  0 12
   10.2457  -51.8144    0.0418 C   0  0  0  0  0  0  0  0  0 13
   10.2643  -50.3533    0.0218 C   0  0  0  0  0  0  0  0  0 14
   11.4252  -49.7021   -0.0044 C   0  0  0  0  0  0  0  0  0 15
    8.7395  -52.6592    0.0758 Cl  0  0  0  0  0  0  0  0  0 16
   22.0962  -49.9343    0.3351 H   0  0  0  0  0  0  0  0  0 17
   21.1543  -48.4844   -0.1004 H   0  0  0  0  0  0  0  0  0 18
   20.0808  -51.1903    0.3909 H   0  0  0  0  0  0  0  0  0 19
   17.5453  -51.0904   -0.9423 H   0  0  0  0  0  0  0  0  0 20
   17.5809  -51.0741    0.8246 H   0  0  0  0  0  0  0  0  0 21
   16.3470  -48.8445    0.7926 H   0  0  0  0  0  0  0  0  0 22
   16.3340  -48.8935   -0.9874 H   0  0  0  0  0  0  0  0  0 23
   15.2150  -51.2869   -0.0387 H   0  0  0  0  0  0  0  0  0 24
   13.5725  -52.3249   -0.0013 H   0  0  0  0  0  0  0  0  0 25
   11.3767  -53.5540    0.0483 H   0  0  0  0  0  0  0  0  0 26
    9.3527  -49.8115    0.0282 H   0  0  0  0  0  0  0  0  0 27
   11.4362  -48.6419   -0.0189 H   0  0  0  0  0  0  0  0  0 28
  1  2  1  0  0  0
  2  3  1  0  0  0
  3  4  2  0  0  0
  3  5  1  0  0  0
  5  6  1  0  0  0
  6  7  1  0  0  0
  7  8  1  0  0  0
  8  9  2  0  0  0
  8 10  1  0  0  0
 10 11  2  0  0  0
 11 12  1  0  0  0
 12 13  2  0  0  0
 13 14  1  0  0  0
 14 15  2  0  0  0
 10 15  1  0  0  0
 13 16  1  0  0  0
  1 17  1  0  0  0
  1 18  1  0  0  0
  2 19  1  0  0  0
  5 20  1  0  0  0
  5 21  1  0  0  0
  6 22  1  0  0  0
  6 23  1  0  0  0
  7 24  1  0  0  0
 11 25  1  0  0  0
 12 26  1  0  0  0
 14 27  1  0  0  0
 15 28  1  0  0  0
M  END
> <Clean Energy>
20.3125

$$$$
