STK536739
  DSViewer          3D                             0

 40 43  0  0  0  0  0  0  0  0999 V2000
    8.1959  -40.8062    0.6524 C   0  0  0  0  0  0  0  0  0  1
    9.5017  -40.4404    0.1082 N   0  0  0  0  0  0  0  0  0  2
   10.1804  -39.4674    0.9820 C   0  0  0  0  0  0  0  0  0  3
   11.4656  -38.9933    0.2502 C   0  0  0  0  0  0  0  0  0  4
   12.2856  -40.1649   -0.1583 C   0  0  0  0  0  0  0  0  0  5
   11.7503  -41.3777   -0.2683 C   0  0  0  0  0  0  0  0  0  6
   10.3264  -41.6826    0.0583 C   0  0  0  0  0  0  0  0  0  7
   12.9328  -42.4580   -0.7731 S   0  0  0  0  0  0  0  0  0  8
   14.1945  -41.3540   -0.8757 C   0  0  0  0  0  0  0  0  0  9
   13.7565  -40.1536   -0.5302 C   0  0  0  0  0  0  0  0  0 10
   14.6473  -39.0127   -0.5409 C   0  0  0  0  0  0  0  0  0 11
   14.2438  -37.8873   -0.2285 O   0  0  0  0  0  0  0  0  0 12
   15.9247  -39.1857   -0.8980 N   0  0  0  0  0  0  0  0  0 13
   16.4580  -40.5080   -1.2779 C   0  0  2  0  0  0  0  0  0 14
   15.4932  -41.6007   -1.2572 N   0  0  0  0  0  0  0  0  0 15
   17.6623  -40.8148   -0.4206 C   0  0  0  0  0  0  0  0  0 16
   17.7358  -41.9533    0.2695 C   0  0  0  0  0  0  0  0  0 17
   18.9096  -42.2357    1.0948 C   0  0  0  0  0  0  0  0  0 18
   19.9071  -41.3569    1.1593 C   0  0  0  0  0  0  0  0  0 19
   19.8281  -40.1055    0.4025 C   0  0  0  0  0  0  0  0  0 20
   18.7596  -39.8500   -0.3483 C   0  0  0  0  0  0  0  0  0 21
   20.8663  -39.1813    0.4649 O   0  0  0  0  0  0  0  0  0 22
   21.0207  -41.6305    1.9452 O   0  0  0  0  0  0  0  0  0 23
    7.7190  -41.5446   -0.0073 H   0  0  0  0  0  0  0  0  0 24
    7.5642  -39.9095    0.7201 H   0  0  0  0  0  0  0  0  0 25
    8.3284  -41.2391    1.6539 H   0  0  0  0  0  0  0  0  0 26
    9.5411  -38.5918    1.1594 H   0  0  0  0  0  0  0  0  0 27
   10.4174  -39.9534    1.9394 H   0  0  0  0  0  0  0  0  0 28
   11.1650  -38.4787   -0.6727 H   0  0  0  0  0  0  0  0  0 29
   12.0577  -38.2853    0.8460 H   0  0  0  0  0  0  0  0  0 30
    9.9133  -42.4417   -0.6197 H   0  0  0  0  0  0  0  0  0 31
   10.3341  -42.1194    1.0666 H   0  0  0  0  0  0  0  0  0 32
   16.5295  -38.3982   -0.9065 H   0  0  0  0  0  0  0  0  0 33
   16.8744  -40.3906   -2.2872 H   0  0  0  0  0  0  0  0  0 34
   15.7657  -42.5175   -1.5307 H   0  0  0  0  0  0  0  0  0 35
   16.9449  -42.6562    0.2226 H   0  0  0  0  0  0  0  0  0 36
   18.9659  -43.1419    1.6425 H   0  0  0  0  0  0  0  0  0 37
   18.7019  -38.9440   -0.8960 H   0  0  0  0  0  0  0  0  0 38
   21.5781  -39.5196    1.0607 H   0  0  0  0  0  0  0  0  0 39
   20.9074  -42.5108    2.3818 H   0  0  0  0  0  0  0  0  0 40
  1  2  1  0  0  0
  2  3  1  0  0  0
  3  4  1  0  0  0
  4  5  1  0  0  0
  5  6  2  0  0  0
  6  7  1  0  0  0
  2  7  1  0  0  0
  6  8  1  0  0  0
  8  9  1  0  0  0
  9 10  2  0  0  0
  5 10  1  0  0  0
 10 11  1  0  0  0
 11 12  2  0  0  0
 11 13  1  0  0  0
 13 14  1  0  0  0
 14 15  1  0  0  0
  9 15  1  0  0  0
 16 17  2  0  0  0
 17 18  1  0  0  0
 18 19  2  0  0  0
 19 20  1  0  0  0
 20 21  2  0  0  0
 16 21  1  0  0  0
 20 22  1  0  0  0
 19 23  1  0  0  0
 14 16  1  0  0  0
  1 24  1  0  0  0
  1 25  1  0  0  0
  1 26  1  0  0  0
  3 27  1  0  0  0
  3 28  1  0  0  0
  4 29  1  0  0  0
  4 30  1  0  0  0
  7 31  1  0  0  0
  7 32  1  0  0  0
 13 33  1  0  0  0
 14 34  1  0  0  0
 15 35  1  0  0  0
 17 36  1  0  0  0
 18 37  1  0  0  0
 21 38  1  0  0  0
 22 39  1  0  0  0
 23 40  1  0  0  0
M  END
> <Clean Energy>
71.6654

$$$$
