STK674854
  DSViewer          3D                             0

 24 24  0  0  0  0  0  0  0  0999 V2000
   39.2903  -30.8082    0.1384 O   0  0  0  0  0  0  0  0  0  1
   38.0627  -31.4599    0.1114 C   0  0  0  0  0  0  0  0  0  2
   38.0215  -32.6950    0.0852 O   0  0  0  0  0  0  0  0  0  3
   36.8228  -30.6843    0.1141 C   0  0  0  0  0  0  0  0  0  4
   35.6612  -31.3596    0.0874 C   0  0  0  0  0  0  0  0  0  5
   34.3098  -30.7030    0.0864 C   0  0  0  0  0  0  0  0  0  6
   34.2761  -29.4767    0.1118 O   0  0  0  0  0  0  0  0  0  7
   32.9729  -31.4963    0.0552 C   0  0  0  0  0  0  0  0  0  8
   31.7667  -30.8661    0.0555 C   0  0  0  0  0  0  0  0  0  9
   31.5766  -29.4590    0.0834 O   0  0  0  0  0  0  0  0  0 10
   30.5271  -31.6501    0.0255 C   0  0  0  0  0  0  0  0  0 11
   29.3491  -31.0120    0.0264 F   0  0  0  0  0  0  0  0  0 12
   30.5461  -32.9745   -0.0024 C   0  0  0  0  0  0  0  0  0 13
   31.7985  -33.6800   -0.0039 C   0  0  0  0  0  0  0  0  0 14
   32.9514  -33.0199    0.0226 C   0  0  0  0  0  0  0  0  0 15
   34.0596  -33.7562    0.0189 F   0  0  0  0  0  0  0  0  0 16
   31.8035  -35.0195   -0.0322 F   0  0  0  0  0  0  0  0  0 17
   29.3943  -33.6584   -0.0293 F   0  0  0  0  0  0  0  0  0 18
   36.9280  -29.2730    0.1448 N   0  0  0  0  0  0  0  0  0 19
   40.0185  -31.4778    0.1323 H   0  0  0  0  0  0  0  0  0 20
   35.7207  -32.3981    0.0663 H   0  0  0  0  0  0  0  0  0 21
   32.3853  -28.9589    0.1027 H   0  0  0  0  0  0  0  0  0 22
   37.8295  -28.8553    0.1633 H   0  0  0  0  0  0  0  0  0 23
   36.1382  -28.6979    0.1481 H   0  0  0  0  0  0  0  0  0 24
  1  2  1  0  0  0
  2  3  2  0  0  0
  2  4  1  0  0  0
  4  5  2  0  0  0
  5  6  1  0  0  0
  6  7  2  0  0  0
  6  8  1  0  0  0
  8  9  2  0  0  0
  9 10  1  0  0  0
  9 11  1  0  0  0
 11 12  1  0  0  0
 11 13  2  0  0  0
 13 14  1  0  0  0
 14 15  2  0  0  0
  8 15  1  0  0  0
 15 16  1  0  0  0
 14 17  1  0  0  0
 13 18  1  0  0  0
  4 19  1  0  0  0
  1 20  1  0  0  0
  5 21  1  0  0  0
 10 22  1  0  0  0
 19 23  1  0  0  0
 19 24  1  0  0  0
M  END
> <Clean Energy>
5.65626

$$$$
