STK617139
  DSViewer          3D                             0

 29 30  0  0  0  0  0  0  0  0999 V2000
   39.8251  -16.9283   -0.1756 N   0  0  0  0  0  0  0  0  0  1
   38.6433  -16.2513   -0.1102 N   0  0  0  0  0  0  0  0  0  2
   37.4374  -16.9517   -0.1004 C   0  0  0  0  0  0  0  0  0  3
   37.4381  -18.1867   -0.1510 O   0  0  0  0  0  0  0  0  0  4
   36.1741  -16.2242   -0.0304 C   0  0  0  0  0  0  0  0  0  5
   36.1867  -14.9904    0.0197 O   0  0  0  0  0  0  0  0  0  6
   35.0265  -16.9053   -0.0217 N   0  0  0  0  0  0  0  0  0  7
   33.7738  -16.2314    0.0464 C   0  0  0  0  0  0  0  0  0  8
   33.6430  -14.5088    0.1270 S   0  0  0  0  0  0  0  0  0  9
   32.0084  -14.4444    0.1840 C   0  0  0  0  0  0  0  0  0 10
   31.4978  -15.6440    0.1436 C   0  0  0  0  0  0  0  0  0 11
   32.5094  -16.7655    0.0598 C   0  0  0  0  0  0  0  0  0 12
   32.0639  -18.2158    0.0042 C   0  0  0  0  0  0  0  0  0 13
   30.8524  -18.4553    0.0377 O   0  0  0  0  0  0  0  0  0 14
   32.9231  -19.3153   -0.0845 O   0  0  0  0  0  0  0  0  0 15
   30.0064  -15.5793    0.1659 C   0  0  0  0  0  0  0  0  0 16
   29.9268  -14.2000   -0.5673 C   0  0  0  0  0  0  0  0  0 17
   30.9833  -13.3771    0.2356 C   0  0  0  0  0  0  0  0  0 18
   40.7147  -16.4104   -0.1827 H   0  0  0  0  0  0  0  0  0 19
   39.8280  -17.9570   -0.2178 H   0  0  0  0  0  0  0  0  0 20
   38.6411  -15.2577   -0.0694 H   0  0  0  0  0  0  0  0  0 21
   35.0707  -17.8635   -0.0619 H   0  0  0  0  0  0  0  0  0 22
   33.8288  -19.0538   -0.1080 H   0  0  0  0  0  0  0  0  0 23
   29.4846  -16.4146   -0.3216 H   0  0  0  0  0  0  0  0  0 24
   29.6661  -15.4531    1.2030 H   0  0  0  0  0  0  0  0  0 25
   30.3109  -14.3393   -1.5878 H   0  0  0  0  0  0  0  0  0 26
   28.9235  -13.7524   -0.5964 H   0  0  0  0  0  0  0  0  0 27
   31.2730  -12.4089   -0.1965 H   0  0  0  0  0  0  0  0  0 28
   30.6343  -13.2609    1.2713 H   0  0  0  0  0  0  0  0  0 29
  1  2  1  0  0  0
  2  3  1  0  0  0
  3  4  2  0  0  0
  3  5  1  0  0  0
  5  6  2  0  0  0
  5  7  1  0  0  0
  7  8  1  0  0  0
  8  9  1  0  0  0
  9 10  1  0  0  0
 10 11  2  0  0  0
 11 12  1  0  0  0
  8 12  2  0  0  0
 12 13  1  0  0  0
 13 14  2  0  0  0
 13 15  1  0  0  0
 11 16  1  0  0  0
 16 17  1  0  0  0
 17 18  1  0  0  0
 10 18  1  0  0  0
  1 19  1  0  0  0
  1 20  1  0  0  0
  2 21  1  0  0  0
  7 22  1  0  0  0
 15 23  1  0  0  0
 16 24  1  0  0  0
 16 25  1  0  0  0
 17 26  1  0  0  0
 17 27  1  0  0  0
 18 28  1  0  0  0
 18 29  1  0  0  0
M  END
> <Clean Energy>
84.9269

$$$$
