STK936575
  DSViewer          3D                             0

 33 35  0  0  0  0  0  0  0  0999 V2000
   36.3433  -61.9966   -0.2914 C   0  0  0  0  0  0  0  0  0  1
   36.0179  -62.9906    0.5564 C   0  0  0  0  0  0  0  0  0  2
   37.0126  -64.0331    0.8851 C   0  0  0  0  0  0  0  0  0  3
   38.2047  -63.9390    0.3180 C   0  0  0  0  0  0  0  0  0  4
   38.5495  -62.9237   -0.5528 C   0  0  0  0  0  0  0  0  0  5
   37.7010  -61.9614   -0.8856 C   0  0  0  0  0  0  0  0  0  6
   39.2871  -64.7360    0.4342 N   0  0  0  0  0  0  0  0  0  7
   40.2983  -64.1810   -0.3867 C   0  0  0  0  0  0  0  0  0  8
   39.8805  -63.1131   -0.9753 N   0  0  0  0  0  0  0  0  0  9
   33.8310  -60.9292   -0.0054 S   0  0  0  0  0  0  0  0  0 10
   33.8579  -61.1684    1.4933 O   0  0  0  0  0  0  0  0  0 11
   33.2374  -59.5615   -0.2861 O   0  0  0  0  0  0  0  0  0 12
   31.3821  -62.2347   -0.3427 C   0  0  0  0  0  0  0  0  0 13
   35.4263  -60.9787   -0.6359 N   0  0  0  0  0  0  0  0  0 14
   30.9315  -61.3882    0.5864 C   0  0  0  0  0  0  0  0  0 15
   29.5355  -61.4528    1.0208 C   0  0  0  0  0  0  0  0  0 16
   28.7125  -62.3548    0.4915 C   0  0  0  0  0  0  0  0  0 17
   29.2035  -63.2821   -0.5249 C   0  0  0  0  0  0  0  0  0 18
   30.4729  -63.2245   -0.9212 C   0  0  0  0  0  0  0  0  0 19
   32.8177  -62.2034   -0.8210 C   0  0  0  0  0  0  0  0  0 20
   35.0548  -63.0320    0.9884 H   0  0  0  0  0  0  0  0  0 21
   36.7805  -64.8261    1.5494 H   0  0  0  0  0  0  0  0  0 22
   37.9841  -61.1903   -1.5559 H   0  0  0  0  0  0  0  0  0 23
   39.3598  -65.5565    0.9904 H   0  0  0  0  0  0  0  0  0 24
   41.2702  -64.5896   -0.5019 H   0  0  0  0  0  0  0  0  0 25
   35.7155  -60.2674   -1.2670 H   0  0  0  0  0  0  0  0  0 26
   31.5748  -60.6689    1.0132 H   0  0  0  0  0  0  0  0  0 27
   29.1792  -60.7796    1.7587 H   0  0  0  0  0  0  0  0  0 28
   27.7011  -62.4004    0.8074 H   0  0  0  0  0  0  0  0  0 29
   28.5485  -64.0014   -0.9471 H   0  0  0  0  0  0  0  0  0 30
   30.8277  -63.8984   -1.6589 H   0  0  0  0  0  0  0  0  0 31
   33.2512  -63.1999   -0.6553 H   0  0  0  0  0  0  0  0  0 32
   32.8098  -62.0472   -1.9086 H   0  0  0  0  0  0  0  0  0 33
  1  2  2  0  0  0
  2  3  1  0  0  0
  3  4  2  0  0  0
  4  5  1  0  0  0
  5  6  2  0  0  0
  6  1  1  0  0  0
  4  7  1  0  0  0
  7  8  1  0  0  0
  8  9  2  0  0  0
  9  5  1  0  0  0
 10 11  2  0  0  0
 10 12  2  0  0  0
  1 14  1  0  0  0
 10 14  1  0  0  0
 13 15  2  0  0  0
 15 16  1  0  0  0
 16 17  2  0  0  0
 17 18  1  0  0  0
 18 19  2  0  0  0
 19 13  1  0  0  0
 13 20  1  0  0  0
 20 10  1  0  0  0
  2 21  1  0  0  0
  3 22  1  0  0  0
  6 23  1  0  0  0
  7 24  1  0  0  0
  8 25  1  0  0  0
 14 26  1  0  0  0
 15 27  1  0  0  0
 16 28  1  0  0  0
 17 29  1  0  0  0
 18 30  1  0  0  0
 19 31  1  0  0  0
 20 32  1  0  0  0
 20 33  1  0  0  0
M  END
> <Clean Energy>
33.507

$$$$
