STK930543
  DSViewer          3D                             0

 30 32  0  0  0  0  0  0  0  0999 V2000
   17.0873  -73.6206    0.4291 C   0  0  0  0  0  0  0  0  0  1
   17.1153  -74.9245    0.7617 C   0  0  0  0  0  0  0  0  0  2
   18.2743  -75.7568    0.3788 C   0  0  0  0  0  0  0  0  0  3
   19.2538  -75.1679   -0.2887 C   0  0  0  0  0  0  0  0  0  4
   19.2354  -73.8305   -0.6353 C   0  0  0  0  0  0  0  0  0  5
   18.2238  -73.0341   -0.3200 C   0  0  0  0  0  0  0  0  0  6
   20.4127  -75.6752   -0.7576 N   0  0  0  0  0  0  0  0  0  7
   21.0984  -74.6147   -1.3976 C   0  0  0  0  0  0  0  0  0  8
   20.4189  -73.5211   -1.3348 N   0  0  0  0  0  0  0  0  0  9
   14.6434  -73.3884    1.6331 S   0  0  0  0  0  0  0  0  0 10
   13.8145  -72.1955    2.0684 O   0  0  0  0  0  0  0  0  0 11
   15.0754  -74.1931    2.8447 O   0  0  0  0  0  0  0  0  0 12
   13.6687  -74.3879    0.5488 C   0  0  0  0  0  0  0  0  0 13
   16.0006  -72.7918    0.7749 N   0  0  0  0  0  0  0  0  0 14
   13.1593  -73.8586   -0.5605 C   0  0  0  0  0  0  0  0  0 15
   12.3540  -74.6840   -1.4609 C   0  0  0  0  0  0  0  0  0 16
   12.1328  -75.9646   -1.1699 C   0  0  0  0  0  0  0  0  0 17
   12.6954  -76.5461    0.0506 C   0  0  0  0  0  0  0  0  0 18
   13.4270  -75.7936    0.8696 C   0  0  0  0  0  0  0  0  0 19
   11.1824  -76.9399   -2.2326 Cl  0  0  0  0  0  0  0  0  0 20
   16.3133  -75.3581    1.2951 H   0  0  0  0  0  0  0  0  0 21
   18.3201  -76.7860    0.6291 H   0  0  0  0  0  0  0  0  0 22
   18.2272  -72.0101   -0.5946 H   0  0  0  0  0  0  0  0  0 23
   20.7249  -76.6147   -0.6699 H   0  0  0  0  0  0  0  0  0 24
   22.0452  -74.7077   -1.8664 H   0  0  0  0  0  0  0  0  0 25
   16.0203  -71.8350    0.5073 H   0  0  0  0  0  0  0  0  0 26
   13.3378  -72.8389   -0.7909 H   0  0  0  0  0  0  0  0  0 27
   11.9467  -74.2629   -2.3449 H   0  0  0  0  0  0  0  0  0 28
   12.5203  -77.5661    0.2819 H   0  0  0  0  0  0  0  0  0 29
   13.8362  -76.2131    1.7534 H   0  0  0  0  0  0  0  0  0 30
  1  2  2  0  0  0
  2  3  1  0  0  0
  3  4  2  0  0  0
  4  5  1  0  0  0
  5  6  2  0  0  0
  6  1  1  0  0  0
  4  7  1  0  0  0
  7  8  1  0  0  0
  8  9  2  0  0  0
  9  5  1  0  0  0
 10 11  2  0  0  0
 10 12  2  0  0  0
 10 13  1  0  0  0
  1 14  1  0  0  0
 10 14  1  0  0  0
 13 15  2  0  0  0
 15 16  1  0  0  0
 16 17  2  0  0  0
 17 18  1  0  0  0
 18 19  2  0  0  0
 19 13  1  0  0  0
 17 20  1  0  0  0
  2 21  1  0  0  0
  3 22  1  0  0  0
  6 23  1  0  0  0
  7 24  1  0  0  0
  8 25  1  0  0  0
 14 26  1  0  0  0
 15 27  1  0  0  0
 16 28  1  0  0  0
 18 29  1  0  0  0
 19 30  1  0  0  0
M  END
> <Clean Energy>
26.4831

$$$$
