STK936556
  DSViewer          3D                             0

 34 36  0  0  0  0  0  0  0  0999 V2000
   36.9092  -74.5674    0.0637 C   0  0  0  0  0  0  0  0  0  1
   37.4306  -74.7349    1.2925 C   0  0  0  0  0  0  0  0  0  2
   38.8906  -74.6166    1.4925 C   0  0  0  0  0  0  0  0  0  3
   39.6315  -74.3453    0.4293 C   0  0  0  0  0  0  0  0  0  4
   39.1040  -74.1714   -0.8366 C   0  0  0  0  0  0  0  0  0  5
   37.8040  -74.2655   -1.0778 C   0  0  0  0  0  0  0  0  0  6
   40.9665  -74.1840    0.3194 N   0  0  0  0  0  0  0  0  0  7
   41.2382  -73.9080   -1.0427 C   0  0  0  0  0  0  0  0  0  8
   40.1523  -73.8969   -1.7372 N   0  0  0  0  0  0  0  0  0  9
   34.4516  -75.0184    1.1186 S   0  0  0  0  0  0  0  0  0 10
   34.5420  -73.9427    2.1844 O   0  0  0  0  0  0  0  0  0 11
   34.8200  -76.3707    1.6989 O   0  0  0  0  0  0  0  0  0 12
   32.8151  -75.0936    0.4656 C   0  0  0  0  0  0  0  0  0 13
   35.5289  -74.6736   -0.1589 N   0  0  0  0  0  0  0  0  0 14
   31.9095  -74.1936    0.8335 C   0  0  0  0  0  0  0  0  0 15
   30.5483  -74.2490    0.2941 C   0  0  0  0  0  0  0  0  0 16
   30.2110  -75.2173   -0.5803 C   0  0  0  0  0  0  0  0  0 17
   31.2281  -76.2015   -0.9733 C   0  0  0  0  0  0  0  0  0 18
   32.4606  -76.1405   -0.4765 C   0  0  0  0  0  0  0  0  0 19
   28.9062  -75.3640   -1.1703 O   0  0  0  0  0  0  0  0  0 20
   27.9101  -74.3981   -0.7846 C   0  0  0  0  0  0  0  0  0 21
   36.8027  -74.9509    2.1165 H   0  0  0  0  0  0  0  0  0 22
   39.3278  -74.7440    2.4500 H   0  0  0  0  0  0  0  0  0 23
   37.4169  -74.1291   -2.0554 H   0  0  0  0  0  0  0  0  0 24
   41.6319  -74.2472    1.0549 H   0  0  0  0  0  0  0  0  0 25
   42.2065  -73.7336   -1.4386 H   0  0  0  0  0  0  0  0  0 26
   35.1716  -74.5461   -1.0778 H   0  0  0  0  0  0  0  0  0 27
   32.1737  -73.4308    1.5211 H   0  0  0  0  0  0  0  0  0 28
   29.8559  -73.5161    0.6102 H   0  0  0  0  0  0  0  0  0 29
   30.9769  -76.9688   -1.6607 H   0  0  0  0  0  0  0  0  0 30
   33.1862  -76.8568   -0.7683 H   0  0  0  0  0  0  0  0  0 31
   26.9667  -74.6222   -1.3025 H   0  0  0  0  0  0  0  0  0 32
   28.2475  -73.3884   -1.0625 H   0  0  0  0  0  0  0  0  0 33
   27.7494  -74.4470    0.3027 H   0  0  0  0  0  0  0  0  0 34
  1  2  2  0  0  0
  2  3  1  0  0  0
  3  4  2  0  0  0
  4  5  1  0  0  0
  5  6  2  0  0  0
  6  1  1  0  0  0
  4  7  1  0  0  0
  7  8  1  0  0  0
  8  9  2  0  0  0
  9  5  1  0  0  0
 10 11  2  0  0  0
 10 12  2  0  0  0
 10 13  1  0  0  0
  1 14  1  0  0  0
 10 14  1  0  0  0
 13 15  2  0  0  0
 15 16  1  0  0  0
 16 17  2  0  0  0
 17 18  1  0  0  0
 18 19  2  0  0  0
 19 13  1  0  0  0
 17 20  1  0  0  0
 20 21  1  0  0  0
  2 22  1  0  0  0
  3 23  1  0  0  0
  6 24  1  0  0  0
  7 25  1  0  0  0
  8 26  1  0  0  0
 14 27  1  0  0  0
 15 28  1  0  0  0
 16 29  1  0  0  0
 18 30  1  0  0  0
 19 31  1  0  0  0
 21 32  1  0  0  0
 21 33  1  0  0  0
 21 34  1  0  0  0
M  END
> <Clean Energy>
29.493

$$$$
