STK944352
  DSViewer          3D                             0

 34 35  0  0  0  0  0  0  0  0999 V2000
   14.7805  -64.1667   -0.0035 C   0  0  0  0  0  0  0  0  0  1
   15.0564  -65.5834   -0.0024 O   0  0  0  0  0  0  0  0  0  2
   13.9503  -66.4947   -0.0008 C   0  0  0  0  0  0  0  0  0  3
   12.6688  -66.0682   -0.0005 C   0  0  0  0  0  0  0  0  0  4
   11.5496  -67.0070    0.0009 C   0  0  0  0  0  0  0  0  0  5
   10.2307  -66.4264    0.0011 O   0  0  0  0  0  0  0  0  0  6
    9.1165  -67.3394    0.0024 C   0  0  0  0  0  0  0  0  0  7
   11.7941  -68.3253    0.0019 C   0  0  0  0  0  0  0  0  0  8
   13.1583  -68.8164    0.0016 C   0  0  0  0  0  0  0  0  0  9
   14.2051  -67.9950    0.0004 C   0  0  0  0  0  0  0  0  0 10
   15.4940  -68.6870    0.0004 N   0  0  0  0  0  0  0  0  0 11
   16.8203  -68.1044    0.0008 C   0  0  0  0  0  0  0  0  0 12
   16.9628  -66.8500    0.0026 N   0  0  0  0  0  0  0  0  0 13
   18.2076  -66.2353    0.0033 C   0  0  0  0  0  0  0  0  0 14
   19.2737  -66.9188    0.0023 N   0  0  0  0  0  0  0  0  0 15
   19.2559  -68.3109    0.0005 C   0  0  0  0  0  0  0  0  0 16
   18.0747  -68.9623   -0.0004 C   0  0  0  0  0  0  0  0  0 17
   18.0130  -70.4188   -0.0024 N   0  3  0  0  0  0  0  0  0 18
   18.9877  -71.0662   -0.0029 O   0  0  0  0  0  0  0  0  0 19
   16.8721  -71.0651   -0.0039 O   0  5  0  0  0  0  0  0  0 20
   20.5163  -68.9522   -0.0005 N   0  0  0  0  0  0  0  0  0 21
   15.7303  -63.6130   -0.0046 H   0  0  0  0  0  0  0  0  0 22
   14.2048  -63.9013    0.8956 H   0  0  0  0  0  0  0  0  0 23
   14.2037  -63.9030   -0.9024 H   0  0  0  0  0  0  0  0  0 24
   12.4288  -65.0423   -0.0013 H   0  0  0  0  0  0  0  0  0 25
    8.1777  -66.7675    0.0024 H   0  0  0  0  0  0  0  0  0 26
    9.1580  -67.9718    0.9018 H   0  0  0  0  0  0  0  0  0 27
    9.1571  -67.9733   -0.8960 H   0  0  0  0  0  0  0  0  0 28
   11.0127  -69.0358    0.0029 H   0  0  0  0  0  0  0  0  0 29
   13.3270  -69.8632    0.0024 H   0  0  0  0  0  0  0  0  0 30
   15.4331  -69.6475    0.0004 H   0  0  0  0  0  0  0  0  0 31
   18.2657  -65.1762    0.0047 H   0  0  0  0  0  0  0  0  0 32
   21.3400  -68.3956    0.0003 H   0  0  0  0  0  0  0  0  0 33
   20.6010  -69.9209   -0.0018 H   0  0  0  0  0  0  0  0  0 34
  1  2  1  0  0  0
  2  3  1  0  0  0
  3  4  2  0  0  0
  4  5  1  0  0  0
  5  6  1  0  0  0
  6  7  1  0  0  0
  5  8  2  0  0  0
  8  9  1  0  0  0
  9 10  2  0  0  0
  3 10  1  0  0  0
 10 11  1  0  0  0
 11 12  1  0  0  0
 12 13  2  0  0  0
 13 14  1  0  0  0
 14 15  2  0  0  0
 15 16  1  0  0  0
 16 17  2  0  0  0
 12 17  1  0  0  0
 17 18  1  0  0  0
 18 19  2  0  0  0
 18 20  1  0  0  0
 16 21  1  0  0  0
  1 22  1  0  0  0
  1 23  1  0  0  0
  1 24  1  0  0  0
  4 25  1  0  0  0
  7 26  1  0  0  0
  7 27  1  0  0  0
  7 28  1  0  0  0
  8 29  1  0  0  0
  9 30  1  0  0  0
 11 31  1  0  0  0
 14 32  1  0  0  0
 21 33  1  0  0  0
 21 34  1  0  0  0
M  CHG  2  18   1  20  -1
M  END
> <Clean Energy>
13.1066

$$$$
