STL469702
  DSViewer          3D                             0

 27 29  0  0  0  0  0  0  0  0999 V2000
   35.3049  -73.7253    0.3547 C   0  0  0  0  0  0  0  0  0  1
   35.3096  -75.0138    0.7438 C   0  0  0  0  0  0  0  0  0  2
   36.4910  -75.8595    0.4745 C   0  0  0  0  0  0  0  0  0  3
   37.5133  -75.2978   -0.1508 C   0  0  0  0  0  0  0  0  0  4
   37.5192  -73.9765   -0.5546 C   0  0  0  0  0  0  0  0  0  5
   36.4896  -73.1693   -0.3416 C   0  0  0  0  0  0  0  0  0  6
   38.7004  -75.8225   -0.5195 N   0  0  0  0  0  0  0  0  0  7
   39.4282  -74.7889   -1.1571 C   0  0  0  0  0  0  0  0  0  8
   38.7470  -73.6949   -1.1864 N   0  0  0  0  0  0  0  0  0  9
   32.7868  -73.4395    1.3905 S   0  0  0  0  0  0  0  0  0 10
   31.9257  -72.2334    1.7132 O   0  0  0  0  0  0  0  0  0 11
   33.1643  -74.1804    2.6597 O   0  0  0  0  0  0  0  0  0 12
   31.8945  -74.5114    0.2997 C   0  0  0  0  0  0  0  0  0 13
   34.1984  -72.8830    0.5922 N   0  0  0  0  0  0  0  0  0 14
   31.0863  -74.1159   -0.6891 C   0  0  0  0  0  0  0  0  0 15
   30.4778  -75.2854   -1.4372 C   0  0  0  0  0  0  0  0  0 16
   30.8794  -76.4651   -0.9496 C   0  0  0  0  0  0  0  0  0 17
   31.9251  -76.1880    0.3323 S   0  0  0  0  0  0  0  0  0 18
   34.4733  -75.4258    1.2407 H   0  0  0  0  0  0  0  0  0 19
   36.5191  -76.8771    0.7710 H   0  0  0  0  0  0  0  0  0 20
   36.5124  -72.1579   -0.6589 H   0  0  0  0  0  0  0  0  0 21
   39.0052  -76.7567   -0.3710 H   0  0  0  0  0  0  0  0  0 22
   40.4041  -74.9000   -1.5573 H   0  0  0  0  0  0  0  0  0 23
   34.2384  -71.9386    0.2851 H   0  0  0  0  0  0  0  0  0 24
   30.8936  -73.0992   -0.9231 H   0  0  0  0  0  0  0  0  0 25
   29.8097  -75.1806   -2.2548 H   0  0  0  0  0  0  0  0  0 26
   30.5850  -77.4173   -1.3133 H   0  0  0  0  0  0  0  0  0 27
  1  2  2  0  0  0
  2  3  1  0  0  0
  3  4  2  0  0  0
  4  5  1  0  0  0
  5  6  2  0  0  0
  6  1  1  0  0  0
  4  7  1  0  0  0
  7  8  1  0  0  0
  8  9  2  0  0  0
  9  5  1  0  0  0
 10 11  2  0  0  0
 10 12  2  0  0  0
 10 13  1  0  0  0
  1 14  1  0  0  0
 10 14  1  0  0  0
 13 15  2  0  0  0
 15 16  1  0  0  0
 16 17  2  0  0  0
 17 18  1  0  0  0
 18 13  1  0  0  0
  2 19  1  0  0  0
  3 20  1  0  0  0
  6 21  1  0  0  0
  7 22  1  0  0  0
  8 23  1  0  0  0
 14 24  1  0  0  0
 15 25  1  0  0  0
 16 26  1  0  0  0
 17 27  1  0  0  0
M  END
> <Clean Energy>
50.9847

$$$$
