STL432840
  DSViewer          3D                             0

 21 22  0  0  0  0  0  0  0  0999 V2000
   39.4780  -73.7401   -0.1693 O   0  0  0  0  0  0  0  0  0  1
   38.2432  -73.7771   -0.1356 C   0  0  0  0  0  0  0  0  0  2
   37.3795  -72.6718   -0.2806 N   0  0  0  0  0  0  0  0  0  3
   36.0796  -73.1447   -0.1806 C   0  0  0  0  0  0  0  0  0  4
   36.1272  -74.5380    0.0260 C   0  0  0  0  0  0  0  0  0  5
   37.4564  -74.9320    0.0544 N   0  0  0  0  0  0  0  0  0  6
   35.0332  -75.2723    0.1604 C   0  0  0  0  0  0  0  0  0  7
   33.7293  -74.5771    0.0864 C   0  0  0  0  0  0  0  0  0  8
   33.6823  -73.2498   -0.1109 C   0  0  0  0  0  0  0  0  0  9
   34.9376  -72.4773   -0.2543 C   0  0  0  0  0  0  0  0  0 10
   32.2314  -75.4937    0.2551 S   0  0  0  0  0  0  0  0  0 11
   31.3057  -74.7771    1.2193 O   0  0  0  0  0  0  0  0  0 12
   32.5321  -76.8982    0.7424 O   0  0  0  0  0  0  0  0  0 13
   31.4511  -75.5653   -1.2946 N   0  0  0  0  0  0  0  0  0 14
   37.6515  -71.7272   -0.4275 H   0  0  0  0  0  0  0  0  0 15
   37.7922  -75.8584    0.1847 H   0  0  0  0  0  0  0  0  0 16
   35.0897  -76.3198    0.3151 H   0  0  0  0  0  0  0  0  0 17
   32.7454  -72.7556   -0.1642 H   0  0  0  0  0  0  0  0  0 18
   34.9235  -71.4286   -0.4104 H   0  0  0  0  0  0  0  0  0 19
   32.0715  -76.0368   -1.9676 H   0  0  0  0  0  0  0  0  0 20
   31.2536  -74.6091   -1.6220 H   0  0  0  0  0  0  0  0  0 21
  1  2  2  0  0  0
  2  3  1  0  0  0
  3  4  1  0  0  0
  4  5  1  0  0  0
  5  6  1  0  0  0
  2  6  1  0  0  0
  5  7  2  0  0  0
  7  8  1  0  0  0
  8  9  2  0  0  0
  9 10  1  0  0  0
  4 10  2  0  0  0
  8 11  1  0  0  0
 11 12  2  0  0  0
 11 13  2  0  0  0
 11 14  1  0  0  0
  3 15  1  0  0  0
  6 16  1  0  0  0
  7 17  1  0  0  0
  9 18  1  0  0  0
 10 19  1  0  0  0
 14 20  1  0  0  0
 14 21  1  0  0  0
M  END
> <Clean Energy>
28.1405

$$$$
