STL582276
  DSViewer          3D                             0

 31 33  0  0  0  0  0  0  0  0999 V2000
   12.6611  -66.2214    0.6586 O   0  0  0  0  0  0  0  0  0  1
   13.2110  -65.2313    0.1647 C   0  0  0  0  0  0  0  0  0  2
   14.4067  -65.3615   -0.4094 N   0  0  0  0  0  0  0  0  0  3
   15.1208  -64.2360   -1.0099 C   0  0  1  0  0  0  0  0  0  4
   14.4352  -62.9555   -0.9761 N   0  0  0  0  0  0  0  0  0  5
   13.1962  -62.8101   -0.3752 C   0  0  0  0  0  0  0  0  0  6
   12.5513  -63.9509    0.2150 C   0  0  0  0  0  0  0  0  0  7
   11.3600  -63.8270    0.7963 C   0  0  0  0  0  0  0  0  0  8
   10.7024  -62.5214    0.8360 C   0  0  0  0  0  0  0  0  0  9
   11.2990  -61.4644    0.2892 C   0  0  0  0  0  0  0  0  0 10
   12.6075  -61.6170   -0.3465 C   0  0  0  0  0  0  0  0  0 11
   16.4695  -64.1339   -0.3476 C   0  0  0  0  0  0  0  0  0 12
   16.7854  -63.0654    0.3842 C   0  0  0  0  0  0  0  0  0 13
   18.0961  -62.9779    1.0236 C   0  0  0  0  0  0  0  0  0 14
   18.9764  -63.9650    0.8764 C   0  0  0  0  0  0  0  0  0 15
   18.6340  -65.1381    0.0745 C   0  0  0  0  0  0  0  0  0 16
   17.4381  -65.2196   -0.5101 C   0  0  0  0  0  0  0  0  0 17
   17.0986  -66.3326   -1.2793 O   0  0  0  0  0  0  0  0  0 18
   19.5623  -66.1621   -0.0724 O   0  0  0  0  0  0  0  0  0 19
   14.8282  -66.2598   -0.4263 H   0  0  0  0  0  0  0  0  0 20
   15.3479  -64.5306   -2.0431 H   0  0  0  0  0  0  0  0  0 21
   14.8640  -62.1626   -1.3961 H   0  0  0  0  0  0  0  0  0 22
   10.8888  -64.6726    1.2289 H   0  0  0  0  0  0  0  0  0 23
    9.7537  -62.4172    1.2982 H   0  0  0  0  0  0  0  0  0 24
   10.8272  -60.5150    0.3145 H   0  0  0  0  0  0  0  0  0 25
   13.0875  -60.7787   -0.7834 H   0  0  0  0  0  0  0  0  0 26
   16.0868  -62.2778    0.5054 H   0  0  0  0  0  0  0  0  0 27
   18.3459  -62.1275    1.6056 H   0  0  0  0  0  0  0  0  0 28
   19.9275  -63.9006    1.3410 H   0  0  0  0  0  0  0  0  0 29
   17.8468  -66.9745   -1.2961 H   0  0  0  0  0  0  0  0  0 30
   20.3854  -65.9324    0.4256 H   0  0  0  0  0  0  0  0  0 31
  1  2  2  0  0  0
  2  3  1  0  0  0
  3  4  1  0  0  0
  4  5  1  0  0  0
  5  6  1  0  0  0
  6  7  1  0  0  0
  2  7  1  0  0  0
  7  8  2  0  0  0
  8  9  1  0  0  0
  9 10  2  0  0  0
 10 11  1  0  0  0
  6 11  2  0  0  0
 12 13  2  0  0  0
 13 14  1  0  0  0
 14 15  2  0  0  0
 15 16  1  0  0  0
 16 17  2  0  0  0
 12 17  1  0  0  0
 17 18  1  0  0  0
 16 19  1  0  0  0
  4 12  1  0  0  0
  3 20  1  0  0  0
  4 21  1  0  0  0
  5 22  1  0  0  0
  8 23  1  0  0  0
  9 24  1  0  0  0
 10 25  1  0  0  0
 11 26  1  0  0  0
 13 27  1  0  0  0
 14 28  1  0  0  0
 15 29  1  0  0  0
 18 30  1  0  0  0
 19 31  1  0  0  0
M  END
> <Clean Energy>
21.7534

$$$$
